/*--------------------------------*- C++ -*----------------------------------*\
| =========                 |                                                 |
| \\      /  F ield         | OpenFOAM: The Open Source CFD Toolbox           |
|  \\    /   O peration     | Version:  v2006                                 |
|   \\  /    A nd           | Website:  www.openfoam.com                      |
|    \\/     M anipulation  |                                                 |
\*---------------------------------------------------------------------------*/
FoamFile
{
    version     2.0;
    format      ascii;
    class       volScalarField;
    location    "0";
    object      nut;
}
// * * * * * * * * * * * * * * * * * * * * * * * * * * * * * * * * * * * * * //

dimensions      [0 2 -1 0 0 0 0];

internalField   uniform 0;

boundaryField
{
    
    freestream
    {
        type 		calculated;
        value 		uniform 1e-12;
    }
    fuso
    {
        type            nutkWallFunction;
        value           uniform 1e-12;
    }
    out
    {
         type 		calculated;
        value 		uniform 1e-12;
    }
    symmetry
    {
        type 		symmetry;
    }
    wing
    {
        type 		zeroGradient;
    }

}


// ************************************************************************* //
