/*--------------------------------*- C++ -*----------------------------------*\
| =========                 |                                                 |
| \\      /  F ield         | OpenFOAM: The Open Source CFD Toolbox           |
|  \\    /   O peration     | Version:  1.4.1                                 |
|   \\  /    A nd           | Web:      http://www.openfoam.org               |
|    \\/     M anipulation  |                                                 |
\*---------------------------------------------------------------------------*/

// Field Dictionary

FoamFile
{
    version         2.0;
    format          ascii;
    class           volScalarField;
    object          T;
}

// * * * * * * * * * * * * * * * * * * * * * * * * * * * * * * * * * * * * * //


dimensions      [0 0 0 1 0 0 0];

internalField   uniform 1.;

boundaryField
{
    freestream
    {
        type 		freestream;
        freestreamValue uniform 1;
    }
    fuso
    {
        type 		zeroGradient;
    }
    out
    {
        type 		zeroGradient;
    }
    symmetry
    {
        type 		symmetry;
    }
    wing
    {
        type 		zeroGradient;
    }
}


// ************************************************************************* //
