/*--------------------------------*- C++ -*----------------------------------*\
| =========                 |                                                 |
| \\      /  F ield         | OpenFOAM: The Open Source CFD Toolbox           |
|  \\    /   O peration     | Version:  2.1.1                                 |
|   \\  /    A nd           | Web:      www.OpenFOAM.org                      |
|    \\/     M anipulation  |                                                 |
\*---------------------------------------------------------------------------*/
FoamFile
{
    version     2.0;
    format      ascii;
    class       volScalarField;
    object      nuTilda;
}
// * * * * * * * * * * * * * * * * * * * * * * * * * * * * * * * * * * * * * //

dimensions      [0 2 -1 0 0 0 0];

internalField   uniform 1.014e-7;           

boundaryField
{
    
    Side
    {
        type            empty;
    }
    
    Outlet
    {
        type            zeroGradient;
    }
    
    Airfoil
    {
        type            fixedValue;
	value 		uniform 0;
    }
    
    Inlet
    {
        type            inletOutlet;
        inletValue 	uniform 1.014e-7;
    }
}



// ************************************************************************* //
