/*--------------------------------*- C++ -*----------------------------------*\
| =========                 |                                                 |
| \\      /  F ield         | OpenFOAM: The Open Source CFD Toolbox           |
|  \\    /   O peration     | Version:  2.1.1                                 |
|   \\  /    A nd           | Web:      www.OpenFOAM.org                      |
|    \\/     M anipulation  |                                                 |
\*---------------------------------------------------------------------------*/
FoamFile
{
    version     2.0;
    format      ascii;
    class       dictionary;
    location    "constant";
    object      turbulenceProperties;
}
// * * * * * * * * * * * * * * * * * * * * * * * * * * * * * * * * * * * * * //

simulationType  RAS;

RAS
{
    turbulence      on;
    RASModel        SpalartAllmaras;
}

//RAS
//{
//    turbulence      on;
//    RASModel        RNGkEpsilon;
//}

//RAS
//{
//    RASModel        kEpsilon;
//
//    turbulence      on;
//
//    printCoeffs     on;
//}


// ************************************************************************* //
