/*--------------------------------*- C++ -*----------------------------------*\
  =========                 |				
  \\      /  F ield         | OpenFOAM: The Open Source CFD Toolbox
   \\    /   O peration     | Website:  https://openfoam.org
    \\  /    A nd           | Version:  9                                   	
     \\/     M anipulation  |
\*---------------------------------------------------------------------------*/
FoamFile
{
    version	2.0;
    format      ascii;
    class       volScalarField;
    object      alphat;
}
// * * * * * * * * * * * * * * * * * * * * * * * * * * * * * * * * * * * * * //

dimensions      [1 -1 -1 0 0 0 0];

internalField   uniform 0;

boundaryField
{
    in
    {
        type            calculated;
        value           uniform 0;
    }
    out
    {
        type            calculated;
        value           uniform 0;
    }
    sym1
    {
        type            symmetry; //zeroGradient;
    }

    sym2
    {
        type            symmetry; //zeroGradient;
    }

    cylinder
    {
        type            compressible::alphatWallFunction;
        Prt             0.85;
        value           uniform 0;
    }

    back
    {
        type            empty;
    }

    front
    {
        type            empty;
    }

}

// ************************************************************************* //
